Version 4
SHEET 1 880 680
WIRE 192 112 192 16
WIRE 144 128 -256 128
WIRE -256 144 -256 128
WIRE 432 144 240 144
WIRE 560 144 432 144
WIRE 144 160 32 160
WIRE 32 256 32 160
WIRE 32 256 -256 256
WIRE -256 272 -256 256
FLAG 112 368 0
FLAG 112 288 VDD
FLAG 192 16 VDD
FLAG -256 224 0
FLAG -256 352 0
FLAG 432 224 0
FLAG 560 208 0
SYMBOL nand 192 144 R0
SYMATTR InstName X1
SYMBOL voltage 112 272 R0
WINDOW 123 0 0 Left 0
WINDOW 39 0 0 Left 0
SYMATTR InstName VDD1
SYMATTR Value 1
SYMBOL voltage -256 128 R0
WINDOW 3 24 96 Left 1
WINDOW 123 0 0 Left 0
WINDOW 39 0 0 Left 0
SYMATTR InstName V1
SYMATTR Value PULSE(0 1 1n 10p 10p 2n 4n)
SYMBOL voltage -256 256 R0
WINDOW 3 24 96 Left 1
WINDOW 123 0 0 Left 0
WINDOW 39 0 0 Left 0
SYMATTR InstName V2
SYMATTR Value PULSE(0 1 1n 10p 10p 2n 6n)
SYMBOL res 416 128 R0
SYMATTR InstName R1
SYMATTR Value 100k
SYMBOL cap 544 144 R0
SYMATTR InstName C1
SYMATTR Value 100f
TEXT -208 -64 Left 2 !.include 90nm_bulk.txt
TEXT -208 -40 Left 2 !.tran 0 24n 0 1p
