Version 4
SHEET 1 880 680
WIRE 448 -48 400 -48
WIRE 528 -48 448 -48
WIRE 448 64 400 64
WIRE 528 64 448 64
WIRE 144 144 -16 144
WIRE 448 176 400 176
WIRE 528 176 448 176
WIRE 448 288 400 288
WIRE 528 288 448 288
WIRE 448 400 400 400
WIRE 528 400 448 400
FLAG -16 224 0
FLAG -928 0 0
FLAG -928 144 0
FLAG -928 288 0
FLAG -928 432 0
FLAG -512 432 0
FLAG -512 288 0
FLAG -512 144 0
FLAG -512 0 0
FLAG -928 -80 A0
FLAG 224 96 A0
FLAG -928 64 A1
FLAG 208 96 A0
FLAG -928 208 A2
FLAG -928 352 A3
FLAG -512 352 B3
FLAG -512 208 B2
FLAG -512 64 B1
FLAG -512 -80 B0
FLAG 176 96 A0
FLAG 192 96 A0
FLAG 176 192 B0
FLAG 192 192 B0
FLAG 208 192 B0
FLAG 224 192 B0
FLAG 448 32 0
FLAG 528 16 0
FLAG 448 144 0
FLAG 528 128 0
FLAG 448 256 0
FLAG 528 240 0
FLAG 448 368 0
FLAG 528 352 0
FLAG 448 480 0
FLAG 528 464 0
FLAG 400 -48 S0
FLAG 256 112 S0
FLAG 256 128 S1
FLAG 256 144 S2
FLAG 256 160 S3
FLAG 272 176 C
FLAG 400 64 S1
FLAG 400 176 S2
FLAG 400 288 S3
FLAG 400 400 C
SYMBOL 4bit_adder 192 144 R0
SYMATTR InstName X1
SYMBOL voltage -16 128 R0
WINDOW 123 0 0 Left 0
WINDOW 39 0 0 Left 0
SYMATTR InstName VDD
SYMATTR Value 1
SYMBOL voltage -928 -96 R0
WINDOW 123 0 0 Left 0
WINDOW 39 0 0 Left 0
SYMATTR InstName V1
SYMATTR Value PULSE(0 1 1n 10p 10p 16n 32n)
SYMBOL voltage -928 48 R0
WINDOW 123 0 0 Left 0
WINDOW 39 0 0 Left 0
SYMATTR InstName V2
SYMATTR Value PULSE(0 1 1n 10p 10p 8n 16n)
SYMBOL voltage -928 192 R0
WINDOW 123 0 0 Left 0
WINDOW 39 0 0 Left 0
SYMATTR InstName V3
SYMATTR Value PULSE(0 1 1n 10p 10p 16n 32n)
SYMBOL voltage -928 336 R0
WINDOW 123 0 0 Left 0
WINDOW 39 0 0 Left 0
SYMATTR InstName V4
SYMATTR Value PULSE(0 1 1n 10p 10p 32n 64n)
SYMBOL voltage -512 336 R0
WINDOW 123 0 0 Left 0
WINDOW 39 0 0 Left 0
SYMATTR InstName V5
SYMATTR Value PULSE(0 1 1n 10p 10p 512n 1024n)
SYMBOL voltage -512 192 R0
WINDOW 123 0 0 Left 0
WINDOW 39 0 0 Left 0
SYMATTR InstName V6
SYMATTR Value PULSE(0 1 1n 10p 10p 256n 512n)
SYMBOL voltage -512 48 R0
WINDOW 123 0 0 Left 0
WINDOW 39 0 0 Left 0
SYMATTR InstName V7
SYMATTR Value PULSE(0 1 1n 10p 10p 128n 256n)
SYMBOL voltage -512 -96 R0
WINDOW 123 0 0 Left 0
WINDOW 39 0 0 Left 0
SYMATTR InstName V8
SYMATTR Value PULSE(0 1 1n 10p 10p 24n 48n)
SYMBOL res 432 -64 R0
SYMATTR InstName R1
SYMATTR Value 100k
SYMBOL res 432 48 R0
SYMATTR InstName R2
SYMATTR Value 100k
SYMBOL res 432 160 R0
SYMATTR InstName R3
SYMATTR Value 100k
SYMBOL res 432 272 R0
SYMATTR InstName R4
SYMATTR Value 100k
SYMBOL res 432 384 R0
SYMATTR InstName R5
SYMATTR Value 100k
SYMBOL cap 512 -48 R0
SYMATTR InstName C1
SYMATTR Value 100f
SYMBOL cap 512 64 R0
SYMATTR InstName C2
SYMATTR Value 100f
SYMBOL cap 512 176 R0
SYMATTR InstName C3
SYMATTR Value 100f
SYMBOL cap 512 288 R0
SYMATTR InstName C4
SYMATTR Value 100f
SYMBOL cap 512 400 R0
SYMATTR InstName C5
SYMATTR Value 100f
TEXT -424 -184 Left 2 !.include 90nm_bulk.txt
TEXT -424 -152 Left 2 !.tran 0 128n 0 1n
