Version 4
SHEET 1 880 680
WIRE -224 48 -640 48
WIRE -224 64 -224 48
WIRE -208 64 -224 64
WIRE 64 64 -112 64
WIRE -304 80 -640 80
WIRE -208 80 -288 80
WIRE -272 96 -272 -48
WIRE -208 96 -272 96
WIRE -320 112 -640 112
WIRE 64 112 64 64
WIRE 128 112 64 112
WIRE -352 144 -640 144
WIRE -112 144 -112 96
WIRE -112 144 -256 144
WIRE 128 144 -32 144
WIRE 128 176 16 176
WIRE -304 192 -304 80
WIRE -208 192 -304 192
WIRE -32 192 -32 144
WIRE -32 192 -112 192
WIRE -288 208 -288 80
WIRE -288 208 -640 208
WIRE -208 208 -272 208
WIRE 128 208 32 208
WIRE -256 224 -256 144
WIRE -208 224 -256 224
WIRE -272 240 -272 208
WIRE -272 240 -640 240
WIRE -336 272 -640 272
WIRE -112 272 -112 224
WIRE -112 272 -256 272
WIRE 128 272 80 272
WIRE -368 304 -640 304
WIRE -320 320 -320 112
WIRE -208 320 -320 320
WIRE 16 320 16 176
WIRE 16 320 -112 320
WIRE -336 336 -336 272
WIRE -208 336 -336 336
WIRE -256 352 -256 272
WIRE -208 352 -256 352
WIRE -112 400 -112 352
WIRE -112 400 -256 400
WIRE -352 448 -352 144
WIRE -208 448 -352 448
WIRE 32 448 32 208
WIRE 32 448 -112 448
WIRE -368 464 -368 304
WIRE -208 464 -368 464
WIRE -256 480 -256 400
WIRE -208 480 -256 480
WIRE 80 480 80 272
WIRE 80 480 -112 480
FLAG -160 48 VDD
IOPIN -160 48 In
FLAG -160 176 VDD
IOPIN -160 176 In
FLAG -160 304 VDD
IOPIN -160 304 In
FLAG -160 432 VDD
IOPIN -160 432 In
FLAG -640 48 A0
IOPIN -640 48 In
FLAG -640 80 A1
IOPIN -640 80 In
FLAG -640 112 A2
IOPIN -640 112 In
FLAG -640 144 A3
IOPIN -640 144 In
FLAG -640 208 B0
IOPIN -640 208 In
FLAG -640 240 B1
IOPIN -640 240 In
FLAG -640 272 B2
IOPIN -640 272 In
FLAG -640 304 B3
IOPIN -640 304 In
FLAG 128 112 S0
IOPIN 128 112 Out
FLAG 128 144 S1
IOPIN 128 144 Out
FLAG 128 176 S2
IOPIN 128 176 Out
FLAG 128 208 S3
IOPIN 128 208 Out
FLAG 128 272 C
IOPIN 128 272 Out
FLAG -272 -48 0
SYMBOL full_adder -160 80 R0
SYMATTR InstName X1
SYMBOL full_adder -160 208 R0
SYMATTR InstName X2
SYMBOL full_adder -160 336 R0
SYMATTR InstName X3
SYMBOL full_adder -160 464 R0
SYMATTR InstName X4
TEXT -680 -48 Left 2 !.include 90nm_bulk.txt
