Version 4
SHEET 1 880 680
WIRE 64 32 -224 32
WIRE 192 128 192 80
WIRE 64 144 64 32
WIRE 160 144 64 144
WIRE 336 160 240 160
WIRE 464 160 336 160
WIRE 160 176 -224 176
WIRE -224 192 -224 176
FLAG 80 368 0
FLAG 80 288 VDD
FLAG 192 80 VDD
FLAG -224 112 0
FLAG -224 272 0
FLAG 336 240 0
FLAG 464 224 0
SYMBOL nor 192 160 R0
SYMATTR InstName X1
SYMBOL voltage 80 272 R0
WINDOW 123 0 0 Left 0
WINDOW 39 0 0 Left 0
SYMATTR InstName V1
SYMATTR Value 1
SYMBOL voltage -224 16 R0
WINDOW 3 24 96 Left 1
WINDOW 123 0 0 Left 0
WINDOW 39 0 0 Left 0
SYMATTR InstName V2
SYMATTR Value PULSE(0 1 1n 10p 10p 4n 8n)
SYMBOL voltage -224 176 R0
WINDOW 3 24 96 Left 1
WINDOW 123 0 0 Left 0
WINDOW 39 0 0 Left 0
SYMATTR InstName V3
SYMATTR Value PULSE(0 1 1n 10p 10p 4n 12n)
SYMBOL res 320 144 R0
SYMATTR InstName R1
SYMATTR Value 100k
SYMBOL cap 448 160 R0
SYMATTR InstName C1
SYMATTR Value 100f
TEXT -256 -104 Left 2 !.include 90nm_bulk.txt
TEXT -256 -80 Left 2 !.tran 0 32n 0 1p
